252
grrm2xtb
C 	  -4.339485838640	  -0.154302724850	  -0.243644778748
C 	  -2.944107268038	  -0.144307378124	  -0.181902118556
C 	  -2.254356725412	   1.065792392297	  -0.070369390370
C 	  -2.956945979166	   2.265659410784	   0.037384568546
C 	  -4.352820132706	   2.254913467917	   0.001937156830
C 	  -5.041374139572	   1.050906668350	  -0.165145493419
C 	  -0.779284135058	   1.075983809051	  -0.093107167621
C 	  -0.103977967187	   0.549539140685	  -1.189841478209
C 	  -0.040823905957	   1.623952041198	   0.949615716500
C 	   1.273402397106	   0.562416160791	  -1.238305381009
H 	  -0.668285932192	   0.139840996572	  -2.015152835370
C 	   1.338656885989	   1.635526791931	   0.900910798894
H 	  -0.553284338807	   2.032726183065	   1.808720791870
C 	   2.017470494701	   1.102030321274	  -0.191467396250
H 	   1.780917522845	   0.169645941904	  -2.107277898102
H 	   1.898465420265	   2.043843438033	   1.729819297478
C 	  -2.155666835618	  -1.393297574178	  -0.214217758381
C 	  -2.163807434553	  -2.238391375732	  -1.317572616742
C 	  -1.341328800706	  -1.708735919037	   0.869618256003
C 	  -1.343214794982	  -3.349641298420	  -1.353094195906
H 	  -2.801693930146	  -2.008872634750	  -2.159497889835
C 	  -0.549988500853	  -2.838068358942	   0.848544229696
H 	  -1.335092618360	  -1.061149261593	   1.734876939493
C 	  -0.525405026474	  -3.661802110150	  -0.272289407520
H 	  -1.341980741825	  -3.992590494680	  -2.221824055077
H 	   0.080322595584	  -3.073052691902	   1.694347225267
C 	   0.361837150150	  -4.837973401689	  -0.301111162008
C 	   0.281061742363	  -5.795087457362	   0.702657323497
C 	   1.299902605840	  -4.987670026983	  -1.314750058549
C 	   1.110142258899	  -6.911562142206	   0.687109877852
H 	  -0.461414495876	  -5.685894962707	   1.479930273125
C 	   2.159682105888	  -6.082437432333	  -1.333930611219
H 	   1.385255359174	  -4.219872321729	  -2.070111225717
C 	   2.043930187595	  -7.043796427763	  -0.334565173743
H 	   2.692273384316	  -7.907448268371	  -0.347629066441
C 	   3.485621115014	   1.090522903331	  -0.243411923664
C 	   4.229631277417	   2.176028002712	   0.205478320406
C 	   4.150733817090	  -0.019360312163	  -0.752171969980
C 	   5.619283984731	   2.160589697007	   0.147205278654
H 	   3.720665729363	   3.057586472827	   0.567051634792
C 	   5.538588591983	  -0.055261206059	  -0.823764416950
H 	   3.578859405915	  -0.867356658412	  -1.098558067427
C 	   6.264210547130	   1.041921193671	  -0.371250528669
H 	   7.343814883387	   1.010046268515	  -0.385685292995
C 	  -5.093343425331	   3.520630487315	   0.169585105444
C 	  -6.003608801824	   3.662599558320	   1.212314405763
C 	  -4.864746948655	   4.602941044676	  -0.673626917529
C 	  -6.663545961878	   4.857114672058	   1.409499198500
H 	  -6.180143623341	   2.833062100245	   1.881612574790
C 	  -5.514236040232	   5.802571375182	  -0.466831183397
H 	  -4.173029604143	   4.500792674660	  -1.497362661463
C 	  -6.420292737462	   5.947931685626	   0.579567759645
H 	  -7.354953422490	   4.958699558771	   2.233481231849
H 	  -5.331206847279	   6.633548976270	  -1.132642759074
C 	  -6.515275163023	   1.108326505349	  -0.235518950336
C 	  -7.122251754125	   1.876273502583	  -1.225076545994
C 	  -7.313841715115	   0.488091898652	   0.718664865225
C 	  -8.490141741097	   2.050007503798	  -1.239658146378
H 	  -6.510868053590	   2.346992345571	  -1.981778648016
C 	  -8.680674209504	   0.688802429134	   0.722680924123
H 	  -6.854291056956	  -0.126871611574	   1.479620405009
C 	  -9.283740475233	   1.485171002734	  -0.245752715350
H 	  -8.949021219246	   2.663047019668	  -2.002007578767
H 	  -9.291631447362	   0.222936564239	   1.482784001977
C 	  -7.109085127446	   7.225286136198	   0.809435769671
C 	  -6.409966966045	   8.425503440479	   0.757998122360
C 	  -8.470949460865	   7.242099565391	   1.085334999962
C 	  -7.056894252303	   9.638541444659	   0.972060517178
H 	  -5.344157498028	   8.408927250993	   0.582722922879
C 	  -9.138601688665	   8.441848898255	   1.305328928364
H 	  -9.022847616797	   6.313400698163	   1.087385880368
C 	  -8.422567882760	   9.632752584120	   1.242971818888
H 	  -8.936744057268	  10.568366111050	   1.405700933982
C 	 -10.727793344914	   1.768816087469	  -0.211824652323
C 	 -11.312580152343	   2.259367238173	   0.949774029643
C 	 -11.509614382976	   1.593099466622	  -1.346689774175
C 	 -12.661968675675	   2.595373198182	   0.980280294455
H 	 -10.697039127653	   2.422667340519	   1.822698831915
C 	 -12.866418241036	   1.898385741753	  -1.329953897455
H 	 -11.054356656107	   1.217973244908	  -2.251872380806
C 	 -13.429406559464	   2.407290017789	  -0.164666483281
H 	 -14.487327168726	   2.623694275141	  -0.136873680391
C 	  -5.069719879089	  -1.426079549718	  -0.394017177878
C 	  -5.983057951946	  -1.597495799508	  -1.429931036770
C 	  -4.862294623851	  -2.476386032020	   0.494913753926
C 	  -6.665776361844	  -2.787786173367	  -1.575691699140
H 	  -6.150305042689	  -0.792980075749	  -2.131367771999
C 	  -5.551460133789	  -3.663460447963	   0.352907842907
H 	  -4.162653615352	  -2.355803690151	   1.309195547657
C 	  -6.462616841619	  -3.839532157575	  -0.685595613674
H 	  -7.381203336473	  -2.898650722236	  -2.377677680812
H 	  -5.367334410223	  -4.473505913332	   1.043692574087
C 	  -7.192338848278	  -5.106622470979	  -0.838788238647
C 	  -7.708715858434	  -5.762725635289	   0.273638157868
C 	  -7.377297182423	  -5.666165355750	  -2.098603618837
C 	  -8.410193417859	  -6.955677609350	   0.138175763162
H 	  -7.598295781102	  -5.318833235626	   1.252242542853
C 	  -8.072132519732	  -6.860218302919	  -2.255677213796
H 	  -6.975049502544	  -5.166190852404	  -2.967547636720
C 	  -8.589523079637	  -7.494519209152	  -1.131337305078
H 	  -9.101316861893	  -8.439447442118	  -1.241209640790
C 	  -2.239868210765	   3.546007950497	   0.188305043349
C 	  -1.328138720198	   3.970954013285	  -0.772246679780
C 	  -2.489557557008	   4.363855581120	   1.286040770525
C 	  -0.694182538395	   5.190499369952	  -0.646325180708
H 	  -1.129044609525	   3.346679631967	  -1.631459646365
C 	  -1.861794937913	   5.585446218150	   1.407124451259
H 	  -3.179245484121	   4.034941904579	   2.049940046378
C 	  -0.959938927785	   6.020603587072	   0.439153038506
H 	  -0.004389724842	   5.516553157439	  -1.411332513263
H 	  -2.057946796268	   6.204917072785	   2.270250221037
C 	  -0.297381328768	   7.324651544042	   0.580104392070
C 	  -1.017154052705	   8.436449876829	   1.003438970094
C 	   1.059536178728	   7.456816479464	   0.310496465445
C 	  -0.394284705942	   9.667753874898	   1.179166397172
H 	  -2.080939062172	   8.346131775283	   1.167587540888
C 	   1.704303133014	   8.677825355723	   0.476289224433
H 	   1.619311090897	   6.597566823990	  -0.028390306434
C 	   0.969057041540	   9.773409234812	   0.917614229194
H 	   1.473831054001	  10.710833496036	   1.098516711838
C 	   3.141526111576	   8.800323813124	   0.186342646848
C 	   4.026777137784	   7.776882632132	   0.518305921329
C 	   3.643532206973	   9.937044371692	  -0.443300261310
C 	   5.373371585695	   7.885079028204	   0.225705840018
H 	   3.661030464324	   6.895740219555	   1.025326482597
C 	   4.990598312231	  10.045592070627	  -0.733918533100
H 	   2.968120253485	  10.731426344266	  -0.726416865654
C 	   5.859518500402	   9.019919905426	  -0.401397282049
H 	   6.044760348698	   7.080497685213	   0.487724319780
H 	   5.363688579791	  10.932017965329	  -1.226589134219
H 	   6.911567589514	   9.103406399734	  -0.631072420475
C 	  -1.156572723390	  10.831832289146	   1.657318076128
C 	  -0.874283876875	  12.113113031718	   1.188918028387
C 	  -2.165432330132	  10.679615015395	   2.606550108541
C 	  -1.562003539483	  13.209399545830	   1.673735201024
H 	  -0.117768113733	  12.249229209824	   0.429622039424
C 	  -2.855327893946	  11.775903648793	   3.087217153316
H 	  -2.393121095515	   9.696370408081	   2.991452463873
C 	  -2.549033675258	  13.046056021309	   2.630598751319
H 	  -1.325618908227	  14.196881874445	   1.303758140977
H 	  -3.632245874008	  11.640221381461	   3.825346214958
H 	  -3.077210231671	  13.903415873313	   3.019753182460
C 	  -6.315590769195	  10.907159871185	   0.893452163735
C 	  -6.618190781076	  11.968094279043	   1.744086687725
C 	  -5.307853779439	  11.081430838561	  -0.053214941811
C 	  -5.950906101599	  13.173318330124	   1.633323078744
H 	  -7.374037259999	  11.842682170413	   2.505984434800
C 	  -4.638847430037	  12.285530413434	  -0.160056554128
H 	  -5.065128954989	  10.274841967299	  -0.729495128851
C 	  -4.965155918758	  13.339528554815	   0.675599068396
H 	  -6.202753895147	  13.987960092189	   2.297253117683
H 	  -3.862873473749	  12.404794507239	  -0.902020192324
H 	  -4.453513328989	  14.285294290548	   0.579396064140
C 	 -10.580603042209	   8.437412881000	   1.597284048482
C 	 -11.427283993363	   9.397172814872	   1.048386994877
C 	 -11.127361247111	   7.462082489617	   2.428743025114
C 	 -12.782642541662	   9.378089991889	   1.321115472582
H 	 -11.022663763001	  10.149532897632	   0.386717339383
C 	 -12.481263131354	   7.446549866132	   2.704930843900
H 	 -10.482580466407	   6.720735847989	   2.877825597912
C 	 -13.313723557025	   8.403699903665	   2.149560953401
H 	 -13.428313900999	  10.125778462559	   0.883145508261
H 	 -12.887454314317	   6.683531876956	   3.352847760517
H 	 -14.372562406773	   8.391354006056	   2.362461228944
C 	 -13.693892357058	   1.687907297995	  -2.528071936193
C 	 -13.547934139228	   0.535213765851	  -3.295869085582
C 	 -14.638842975051	   2.634795571051	  -2.915041667102
C 	 -14.329906198763	   0.333676724001	  -4.417928437259
H 	 -12.830386907109	  -0.215392482789	  -2.997167410565
C 	 -15.415932767126	   2.434301150012	  -4.040642925500
H 	 -14.749029978481	   3.542768874536	  -2.339765024657
C 	 -15.265530236296	   1.282529984940	  -4.794578293022
H 	 -14.210681846294	  -0.568488511006	  -5.000473580453
H 	 -16.141295183732	   3.180041773694	  -4.332491822898
H 	 -15.874980606729	   1.125215295615	  -5.672276064121
C 	 -13.270985085679	   3.148449668852	   2.199939747086
C 	 -12.948502316309	   2.635962620179	   3.454302809119
C 	 -14.184431086627	   4.196974972506	   2.121309880938
C 	 -13.527817627480	   3.154414589370	   4.597470845578
H 	 -12.254304156884	   1.811530652212	   3.529991720774
C 	 -14.762800544198	   4.714495401597	   3.265559795302
H 	 -14.425124700319	   4.623502016131	   1.158440396566
C 	 -14.437644080092	   4.194640611631	   4.507444313186
H 	 -13.272043563377	   2.743279156906	   5.563463446548
H 	 -15.469378608769	   5.528475996314	   3.188575119892
H 	 -14.890149428959	   4.599047203108	   5.401072799912
C 	  -8.953734277350	  -7.640334229785	   1.321675404752
C 	  -8.200828648712	  -7.745221791989	   2.488549962568
C 	 -10.229432319498	  -8.198099667881	   1.296365338222
C 	  -8.709419259969	  -8.393592209944	   3.598487954968
H 	  -7.202334670022	  -7.333286575748	   2.516001361054
C 	 -10.738996039225	  -8.841032239312	   2.409041821591
H 	 -10.831743882575	  -8.108301435524	   0.403822501525
C 	  -9.980290913957	  -8.942374531983	   3.563042187873
H 	  -8.111372094642	  -8.473497723370	   4.494878936251
H 	 -11.732746223902	  -9.263994734696	   2.377111552308
H 	 -10.377824749327	  -9.447297174446	   4.431114564262
C 	  -8.254940239651	  -7.446955007820	  -3.592647864933
C 	  -7.205634444287	  -7.468714695772	  -4.508057108879
C 	  -9.480750461984	  -7.991706990733	  -3.966646687498
C 	  -7.377799295025	  -8.023942925065	  -5.762363086742
H 	  -6.244017189248	  -7.065875817698	  -4.224332992916
C 	  -9.652937389671	  -8.541249014707	  -5.223408064001
H 	 -10.308637311039	  -7.965263413512	  -3.272765423981
C 	  -8.601819445149	  -8.560622284538	  -6.124767806844
H 	  -6.553006248800	  -8.040273941946	  -6.460228030277
H 	 -10.611268053715	  -8.955234359269	  -5.502132903624
H 	  -8.736055804550	  -8.992577022909	  -7.105553235148
C 	   3.183316279041	  -6.217026116150	  -2.382013387971
C 	   2.921539320132	  -5.828910703284	  -3.694146502587
C 	   4.442443702650	  -6.732594849685	  -2.080471447687
C 	   3.890488678386	  -5.948618756342	  -4.672558421202
H 	   1.944017287837	  -5.448797073499	  -3.952823944123
C 	   5.410269296383	  -6.853245527362	  -3.060656622084
H 	   4.670927626913	  -7.023054657813	  -1.064685973516
C 	   5.138931984189	  -6.459168235713	  -4.359683678700
H 	   3.670186535201	  -5.644998009735	  -5.685816567007
H 	   6.382499339084	  -7.251983519901	  -2.808037923178
H 	   5.895579938697	  -6.550964962799	  -5.124753307474
C 	   1.006914973799	  -7.935398247619	   1.738730960982
C 	   0.846799983640	  -7.568108438777	   3.072567846491
C 	   1.070854398188	  -9.289678932172	   1.420564596294
C 	   0.756919018241	  -8.529821819702	   4.061500211868
H 	   0.813190162085	  -6.520668613916	   3.335656529687
C 	   0.975065585926	 -10.250258827265	   2.410173366584
H 	   1.175992546664	  -9.589510677940	   0.387768311120
C 	   0.819702414656	  -9.873803571248	   3.733749914411
H 	   0.639468465391	  -8.230350239616	   5.093053257220
H 	   1.020421994446	 -11.297498950448	   2.148167434435
H 	   0.747773036978	 -10.624775557319	   4.506641334637
C 	   6.210623340847	  -1.237239848470	  -1.385241131950
C 	   7.315563940716	  -1.098317327782	  -2.221555584374
C 	   5.735947813796	  -2.518812413154	  -1.113992222740
C 	   7.922510141049	  -2.209197143555	  -2.777646054900
H 	   7.685598528107	  -0.110635317442	  -2.456140733031
C 	   6.345413128675	  -3.628257415762	  -1.668000098951
H 	   4.892603540924	  -2.648242846516	  -0.451072629759
C 	   7.437776437373	  -3.477296836367	  -2.505197537508
H 	   8.774217714180	  -2.084452348989	  -3.430873718474
H 	   5.962253091389	  -4.613972671208	  -1.451201466445
H 	   7.907577971274	  -4.345175192839	  -2.943747333050
C 	   6.396357552703	   3.312536595700	   0.631458863383
C 	   7.509458031351	   3.767336189696	  -0.071134212213
C 	   6.034471300013	   3.968078831686	   1.806224719094
C 	   8.241992311425	   4.845419702674	   0.390002120930
H 	   7.790111188706	   3.282857168459	  -0.995125238964
C 	   6.770515906716	   5.042403505376	   2.269714255191
H 	   5.182460625624	   3.617361275611	   2.370536626887
C 	   7.877381688710	   5.484664037329	   1.563372705330
H 	   9.100022524257	   5.190558418602	  -0.168699591046
H 	   6.480439873553	   5.539121049568	   3.184440393447
H 	   8.451027348224	   6.325512045450	   1.925237036918
252
ORCA
C 	  -4.337243597284	  -0.153071904091	  -0.243000104698
C 	  -2.941865738258	  -0.142897919750	  -0.182127878605
C 	  -2.252172014891	   1.067238891474	  -0.070809091696
C 	  -2.954896784703	   2.267014590995	   0.037554193832
C 	  -4.350818946518	   2.256031094530	   0.003642733927
C 	  -5.039283136038	   1.051941417703	  -0.163197242994
C 	  -0.777129524656	   1.077556694936	  -0.094233760915
C 	  -0.102072924594	   0.549401046099	  -1.190312019991
C 	  -0.038414794154	   1.627445848597	   0.947323125200
C 	   1.275297300269	   0.562502406422	  -1.239282785550
H 	  -0.666500831552	   0.138060591616	  -2.014696565621
C 	   1.341031924687	   1.639740967476	   0.897859690672
H 	  -0.550603224907	   2.037361220619	   1.806036346555
C 	   2.019516433592	   1.104574429449	  -0.193876034651
H 	   1.782717234195	   0.167950763293	  -2.107499616741
H 	   1.901157673499	   2.049865326877	   1.725673296898
C 	  -2.153630257267	  -1.392034923437	  -0.215224853138
C 	  -2.160784696190	  -2.235428762951	  -1.319877156691
C 	  -1.340956414700	  -1.709444335535	   0.869254355768
C 	  -1.340639509277	  -3.346998285228	  -1.355989611303
H 	  -2.797386265893	  -2.004302499057	  -2.162344932940
C 	  -0.550495213918	  -2.839438235770	   0.847751257776
H 	  -1.335483963471	  -1.063012304305	   1.735399268290
C 	  -0.524883524594	  -3.661340789893	  -0.274331233216
H 	  -1.338059097218	  -3.988477057766	  -2.225815278061
H 	   0.078115801027	  -3.076522535089	   1.694247178312
C 	   0.360901714079	  -4.838811811980	  -0.303541114835
C 	   0.268604810730	  -5.803244976043	   0.692120548180
C 	   1.308187725097	  -4.982564649482	  -1.309378200477
C 	   1.095209528340	  -6.921547158277	   0.675555411856
H 	  -0.480707842548	  -5.698042510381	   1.463369344765
C 	   2.165714500444	  -6.079141680640	  -1.329065418822
H 	   1.402144559038	  -4.209083301230	  -2.057892492557
C 	   2.038103520625	  -7.048040051620	  -0.338432926016
H 	   2.684222571461	  -7.913338091649	  -0.352245197775
C 	   3.487642905561	   1.093904082539	  -0.246575944898
C 	   4.230922766569	   2.182181285024	   0.196680032414
C 	   4.153313198541	  -0.017939150964	  -0.750221538695
C 	   5.620559725474	   2.167727671601	   0.137524383031
H 	   3.721279353822	   3.064979860353	   0.554235490347
C 	   5.541160240498	  -0.053032633593	  -0.822238290565
H 	   3.581910949882	  -0.868112010632	  -1.092065610556
C 	   6.266131124827	   1.047085833157	  -0.375909700421
H 	   7.345755673208	   1.015997852355	  -0.390979719147
C 	  -5.091589820187	   3.521381518145	   0.172994985753
C 	  -6.000549267614	   3.662122171343	   1.217031688538
C 	  -4.864639169828	   4.604475575886	  -0.669645832681
C 	  -6.660767306313	   4.856163554550	   1.416058037870
H 	  -6.175930364221	   2.831961866646	   1.885847824966
C 	  -5.514449098292	   5.803624874243	  -0.461045728809
H 	  -4.173985493297	   4.503288700340	  -1.494389878125
C 	  -6.419190056764	   5.947769702860	   0.586667072685
H 	  -7.351140180585	   4.956658525039	   2.241033030080
H 	  -5.332794980954	   6.635129302610	  -1.126572682741
C 	  -6.513289138197	   1.108642210573	  -0.231777549245
C 	  -7.122091974600	   1.876600589750	  -1.220198052054
C 	  -7.310155114709	   0.487351935743	   0.723161669359
C 	  -8.490125540785	   2.049451028219	  -1.232809799929
H 	  -6.512037567182	   2.348127532078	  -1.977475658797
C 	  -8.677109908303	   0.687089353891	   0.729098344693
H 	  -6.849144429435	  -0.127681611076	   1.483183464118
C 	  -9.281998281341	   1.483594003161	  -0.238099469121
H 	  -8.950525964381	   2.662468153962	  -1.994270475414
H 	  -9.286750854187	   0.220362342032	   1.489729073706
C 	  -7.108976696614	   7.224321626280	   0.817911903787
C 	  -6.411835437269	   8.425613952966	   0.764685760212
C 	  -8.470303181440	   7.239196933943	   1.096600999568
C 	  -7.060373649401	   9.637716728360	   0.979222556737
H 	  -5.346324105570	   8.410713429312	   0.587441732583
C 	  -9.139438998039	   8.437938279641	   1.317569422849
H 	  -9.020834360119	   6.309692236707	   1.100017461904
C 	  -8.425499186031	   9.629969696221	   1.252880072365
H 	  -8.940833895423	  10.564895829238	   1.415926135593
C 	 -10.726141759044	   1.766517572143	  -0.201708012366
C 	 -11.309191228802	   2.255839826099	   0.961292353891
C 	 -11.509828291731	   1.591466404760	  -1.335394331484
C 	 -12.658651414343	   2.591337003141	   0.994402064800
H 	 -10.692213411729	   2.418555246116	   1.833315926870
C 	 -12.866628623942	   1.896643875621	  -1.316192727665
H 	 -11.056010151757	   1.217140771774	  -2.241635382669
C 	 -13.427867478043	   2.404315953402	  -0.149522306564
H 	 -14.485786498717	   2.620532903645	  -0.119873244584
C 	  -5.067351368389	  -1.424868546144	  -0.394078651317
C 	  -5.980031236795	  -1.595827489498	  -1.430644361181
C 	  -4.860441761448	  -2.475534349456	   0.494528937758
C 	  -6.662401828893	  -2.786172278729	  -1.577545055327
H 	  -6.147011926913	  -0.790888119012	  -2.131665394704
C 	  -5.549389982785	  -3.662628443852	   0.351480950676
H 	  -4.161397058305	  -2.355213810378	   1.309368004589
C 	  -6.459637155163	  -3.838328975765	  -0.687864513496
H 	  -7.377271314330	  -2.896806520034	  -2.380063966420
H 	  -5.365892798794	  -4.472944241996	   1.042128898166
C 	  -7.188667044823	  -5.105639452987	  -0.842640495352
C 	  -7.707188972418	  -5.762023052781	   0.268609188926
C 	  -7.370503985510	  -5.665166777278	  -2.102913577097
C 	  -8.408051626679	  -6.955138134346	   0.131410785077
H 	  -7.599104812879	  -5.318181733332	   1.247502070457
C 	  -8.064171951413	  -6.859685911412	  -2.261624271969
H 	  -6.966599766449	  -5.164807483857	  -2.970868563511
C 	  -8.584003959006	  -7.494143833016	  -1.138499346018
H 	  -9.094934405161	  -8.439406309817	  -1.249521222539
C 	  -2.238008655249	   3.547639043814	   0.187031914921
C 	  -1.327896979544	   3.972338986263	  -0.775156724714
C 	  -2.486456594758	   4.366176066441	   1.284531916975
C 	  -0.694629500715	   5.192443111124	  -0.651252298465
H 	  -1.129594164409	   3.347425757371	  -1.634082710479
C 	  -1.859229512916	   5.588231942705	   1.403701246711
H 	  -3.174748495581	   4.037446740447	   2.049766344394
C 	  -0.959315930483	   6.023333476495	   0.433891363287
H 	  -0.006274869084	   5.518326184425	  -1.417619640624
H 	  -2.054375229630	   6.208146680932	   2.266726613269
C 	  -0.298044999767	   7.328306788947	   0.572273376062
C 	  -1.018308822294	   8.439433469342	   0.996553879165
C 	   1.057977519616	   7.462265904521	   0.299066548716
C 	  -0.396864212270	   9.671852186845	   1.169576387713
H 	  -2.081503922519	   8.347621215250	   1.163674671405
C 	   1.701200943131	   8.684519224381	   0.461629719327
H 	   1.618284292896	   6.603564078328	  -0.040339458834
C 	   0.965517837544	   9.779451476389	   0.903833580911
H 	   1.469340880040	  10.717884747656	   1.082164014219
C 	   3.137335719045	   8.808984535916	   0.167151719926
C 	   4.025420549231	   7.787835615408	   0.498540978371
C 	   3.635376232254	   9.945293629725	  -0.466361714290
C 	   5.370902084944	   7.897855853433	   0.201547492763
H 	   3.662875764922	   6.907103042084	   1.008576970667
C 	   4.981326005682	  10.055621161150	  -0.761464308209
H 	   2.957640469676	  10.737862679226	  -0.749003403792
C 	   5.853092688722	   9.032186719193	  -0.429517783782
H 	   6.044550432760	   7.095081009232	   0.463294763296
H 	   5.351309222745	  10.941701811967	  -1.257083738875
H 	   6.904273680242	   9.116957383519	  -0.662688027677
C 	  -1.159689135998	  10.834883231497	   1.649452323540
C 	  -0.880971160141	  12.116579302759	   1.180033743514
C 	  -2.165737695419	  10.681097849674	   2.601430679524
C 	  -1.569491686962	  13.211714956484	   1.666328726230
H 	  -0.126630696913	  12.253924253052	   0.418792394257
C 	  -2.856454100587	  11.776217726586	   3.083557037842
H 	  -2.390582944515	   9.697577198942	   2.987302303822
C 	  -2.553829325142	  13.046806878285	   2.625693600826
H 	  -1.335899395970	  14.199544659259	   1.295498640469
H 	  -3.631202994389	  11.639270097046	   3.823743892989
H 	  -3.082600127617	  13.903269645973	   3.016015016155
C 	  -6.321171326312	  10.907421420412	   0.898307796673
C 	  -6.623292631639	  11.968279377627	   1.749204376709
C 	  -5.315876178877	  11.082716849182	  -0.050771502852
C 	  -5.957843219072	  13.174349596623	   1.636530034336
H 	  -7.377281763509	  11.842112597576	   2.512826607708
C 	  -4.648736794076	  12.287684060636	  -0.159559106258
H 	  -5.073647300086	  10.276235924685	  -0.727363640952
C 	  -4.974508986112	  13.341543692632	   0.676483498031
H 	  -6.209224646984	  13.988852561318	   2.300812788258
H 	  -3.874693327757	  12.407769082298	  -0.903422518464
H 	  -4.464353800868	  14.287964263094	   0.578775239387
C 	 -10.580638550893	   8.430960004406	   1.613465480482
C 	 -11.430946633480	   9.388727275712	   1.066704545633
C 	 -11.122909989659	   7.454919332806	   2.447044290000
C 	 -12.785437396718	   9.367017901432	   1.343627733555
H 	 -11.029867939620	  10.141572494338	   0.403422736191
C 	 -12.475916618109	   7.436730058799	   2.727383283812
H 	 -10.475220922338	   6.715145029061	   2.894557014262
C 	 -13.312015804299	   8.391918372571	   2.174114268817
H 	 -13.433987652387	  10.113176325348	   0.907284571043
H 	 -12.878604446721	   6.673171144961	   3.376839433943
H 	 -14.370190696501	   8.377462924531	   2.390173777608
C 	 -13.695979775682	   1.687769178389	  -2.513300494178
C 	 -13.552014276404	   0.535742512145	  -3.282455497605
C 	 -14.640707308686	   2.635812720836	  -2.897983721898
C 	 -14.335705749375	   0.335978671535	  -4.403640837579
H 	 -12.834605822208	  -0.215705386119	  -2.985535040728
C 	 -15.419610687954	   2.437027037401	  -4.022628201166
H 	 -14.749284509282	   3.543324940623	  -2.321667419174
C 	 -15.271176558772	   1.285907907546	  -4.777956022267
H 	 -14.217886262884	  -0.565619307853	  -4.987350111617
H 	 -16.144818592479	   3.183641386328	  -4.312639581123
H 	 -15.882045452726	   1.129962701182	  -5.654910579919
C 	 -13.265810329269	   3.142708684048	   2.215765003841
C 	 -12.940891212746	   2.628775194375	   3.468921188203
C 	 -14.179757789207	   4.191018419679	   2.140077716049
C 	 -13.518208698015	   3.145671936113	   4.613798378651
H 	 -12.246246413575	   1.804506072344	   3.542311320038
C 	 -14.756159504835	   4.706949943080	   3.286033842804
H 	 -14.422379505336	   4.618680469682	   1.178194059766
C 	 -14.428583784539	   4.185669132735	   4.526694040032
H 	 -13.260542093231	   2.733428636126	   5.578822159850
H 	 -15.463081919857	   5.520848078125	   3.211375493408
H 	 -14.879570068096	   4.588874986999	   5.421624721099
C 	  -8.954645884931	  -7.639921539087	   1.313434523504
C 	  -8.204772147128	  -7.745383397627	   2.482201463989
C 	 -10.230475202820	  -8.197235317215	   1.284676241709
C 	  -8.716450549937	  -8.393934900715	   3.590622659461
H 	  -7.206175957753	  -7.333864856710	   2.512323783535
C 	 -10.743128341471	  -8.840348745309	   2.395824185845
H 	 -10.830365382304	  -8.106997701240	   0.390539932774
C 	  -9.987431858078	  -8.942241986645	   3.551756990193
H 	  -8.120739660662	  -8.474304480878	   4.488528908522
H 	 -11.736921340634	  -9.262999155211	   2.361177225109
H 	 -10.387337999396	  -9.447286678053	   4.418667540577
C 	  -8.243040286815	  -7.446915073183	  -3.598905431626
C 	  -7.191323723383	  -7.467938968889	  -4.511559924044
C 	  -9.467309841008	  -7.993099551430	  -3.975847830165
C 	  -7.359630394546	  -8.023934937824	  -5.766042348196
H 	  -6.230880273550	  -7.063978067915	  -4.225463874108
C 	  -9.635613567935	  -8.543466459307	  -5.232767934855
H 	 -10.297046438265	  -7.967172863362	  -3.284168857704
C 	  -8.582096058628	  -8.562194870056	  -6.131328359037
H 	  -6.533040795012	  -8.039654738203	  -6.461779922120
H 	 -10.592774967994	  -8.958583293232	  -5.513821134711
H 	  -8.713314803458	  -8.994775700141	  -7.112241120166
C 	   3.198650974623	  -6.208599387309	  -2.368633489326
C 	   2.951072197317	  -5.807593377044	  -3.679662428716
C 	   4.452533710092	  -6.732772165629	  -2.060056984911
C 	   3.928500323389	  -5.923367925309	  -4.650062821860
H 	   1.977854867956	  -5.420554409968	  -3.944208797786
C 	   5.428733330159	  -6.849795666541	  -3.032320202891
H 	   4.670440548627	  -7.032982120186	  -1.044798700702
C 	   5.171405181094	  -6.443019509731	  -4.330272196897
H 	   3.719151065891	  -5.609623604171	  -5.662558719157
H 	   6.396584185698	  -7.255623187940	  -2.774246816528
H 	   5.934544178139	  -6.532059634307	  -5.089181312603
C 	   0.979717871170	  -7.953624631136	   1.717803908248
C 	   0.808401203842	  -7.596988299268	   3.053139200826
C 	   1.043128190876	  -9.305390690430	   1.388971817563
C 	   0.707260517594	  -8.566649205521	   4.033194374921
H 	   0.774938228092	  -6.551668243086	   3.324567538900
C 	   0.936131639446	 -10.273893436129	   2.369648203061
H 	   1.156697412708	  -9.596893362238	   0.354679188376
C 	   0.769769341804	  -9.908025524847	   3.694866442080
H 	   0.581112842954	  -8.275473975753	   5.066095678560
H 	   0.981187033421	 -11.319044423721	   2.099367909472
H 	   0.689060200115	 -10.665267266527	   4.460744162567
C 	   6.213880048119	  -1.237902098585	  -1.376747758610
C 	   7.317340554180	  -1.103577835237	  -2.215703186493
C 	   5.741435502076	  -2.518048253351	  -1.095149785259
C 	   7.924911492841	  -2.217739010951	  -2.764529286715
H 	   7.685651323745	  -0.117100475412	  -2.457974674850
C 	   6.351805574280	  -3.630734258772	  -1.641523089577
H 	   4.899316412319	  -2.643556493354	  -0.429929715630
C 	   7.442515008239	  -3.484447460416	  -2.481685489387
H 	   8.775366603691	  -2.096707309947	  -3.420071530399
H 	   5.970744237882	  -4.615375090128	  -1.416338649434
H 	   7.912835859570	  -4.354954989082	  -2.914397902802
C 	   6.396963661733	   3.322533912189	   0.615941132330
C 	   7.509796133806	   3.774594928455	  -0.088848968279
C 	   6.034866679213	   3.983427976791	   1.787645013554
C 	   8.241866691889	   4.855153251988	   0.367198535156
H 	   7.790678979621	   3.285920334376	  -1.010557969902
C 	   6.770562860891	   5.060111159362	   2.246173817394
H 	   5.183069555178	   3.635010059675	   2.353695739535
C 	   7.877197009852	   5.499568789357	   1.537718013394
H 	   9.099697919977	   5.198106866210	  -0.193158338268
H 	   6.480413044268	   5.560808572333	   3.158705980950
H 	   8.450683339545	   6.342161764659	   1.895774470543
